 7
 
 C                  3.68324743   -0.09964909    0.00000000
 H                  3.92726313   -0.68700465    0.92523770
 H                  4.17015514    0.87373358    0.00000000
 C                  2.17591070    0.07504889    0.00000000
 H                  3.92726313   -0.68700465   -0.92523770
 O                  1.64853186    1.18452983    0.00000000
 O                  1.50759088   -1.05731196    0.00000000
