15

 N         -0.2436676394       -1.7543757545        0.0000000000
 C         -0.2164694695        2.5932855669        0.0000000000
 H          0.2666308581        2.9722568640        0.8951152561
 C         -0.2185330516        1.0815123898        0.0000000000
 H          0.2666308581        2.9722568640       -0.8951152561
 C          1.0518353533       -2.4450740053        0.0000000000
 H          1.1563429215       -3.0618807287        0.8872813350
 H          1.8284972759       -1.6866512632        0.0000000000
 H          1.1563429215       -3.0618807287       -0.8872813350
 H         -1.0378842104       -2.3810046911        0.0000000000
 H         -0.2999191933       -0.9847628355       -0.7710022091
 O         -0.2324980327        0.4976470579       -1.1287771983
 O         -0.2324980327        0.4976470579        1.1287771983
 H         -0.2999191933       -0.9847628355        0.7710022091
 H         -1.2504513655        2.9364870417        0.0000000000
