 13
 
 N                 -1.87172800    0.59037200   -0.40942700
 C                  0.67435923   -0.62364753   -0.36499222
 H                  0.02107823   -1.24001753    0.25834578
 H                  1.70988023   -0.92046053   -0.18299122
 H                  0.44390223   -0.79375453   -1.41994422
 C                 -2.21190800   -0.60726900    0.36639100
 H                 -3.29084900   -0.80037900    0.47436400
 H                 -1.77703100   -0.51539800    1.36662600
 H                 -1.75620300   -1.48060700   -0.11063600
 H                 -2.29294646    1.39250077    0.01385122
 H                 -2.21182487    0.48959795   -1.34440224
 H                 -0.87851750    0.70542962   -0.42659245
 O                  0.56596959    0.76140231   -0.02618752
