17

 C        1.923803467700      -0.017759142900       0.000000000000
 N        1.252409495800      -1.153082639800       0.000000000000
 N        3.280756017700      -0.026187563500       0.000000000000
 N        1.270506131500       1.129882851300       0.000000000000
 H        3.797978734300       0.830097081700       0.000000000000
 H        3.786548440800      -0.889261268500       0.000000000000
 H        1.766006307100      -2.014875162400       0.000000000000
 H        0.155974368200      -1.141295455600       0.000000000000
 H        1.794553240500       1.984974403800       0.000000000000
 H        0.183172416200       1.132821954000       0.000000000000
 C       -4.368840879047      -0.011187233476       0.000000000000
 H       -4.720206433347      -0.552452933676       0.875958756700
 H       -4.720206433347      -0.552452933676      -0.875958756700
 C       -2.853790513447       0.005104715424       0.000000000000
 H       -4.770237209347       0.996493915224       0.000000000000
 O       -2.280378238747      -1.123577681676       0.000000000000
 O       -2.278192396547       1.129383556824       0.000000000000