17

 C        1.923803467700      -0.017759142900       0.000000000000
 N        1.252409495800      -1.153082639800       0.000000000000
 N        3.280756017700      -0.026187563500       0.000000000000
 N        1.270506131500       1.129882851300       0.000000000000
 H        3.797978734300       0.830097081700       0.000000000000
 H        3.786548440800      -0.889261268500       0.000000000000
 H        1.766006307100      -2.014875162400       0.000000000000
 H        0.155974368200      -1.141295455600       0.000000000000
 H        1.794553240500       1.984974403800       0.000000000000
 H        0.183172416200       1.132821954000       0.000000000000
 C       -3.393358909900      -0.014224469600       0.000000000000
 H       -3.744724464200      -0.555490169800       0.875958756700
 H       -3.744724464200      -0.555490169800      -0.875958756700
 C       -1.878308544300       0.002067479300       0.000000000000
 H       -3.794755240200       0.993456679100       0.000000000000
 O       -1.304896269600      -1.126614917800       0.000000000000
 O       -1.302710427400       1.126346320700       0.000000000000