15

 C        0.024471742900      -1.489383581400       0.000000000000
 N        0.260302785000      -0.856872652000      -1.135945958000
 N       -0.474248393600      -2.759643634900       0.000000000000
 N        0.260302785000      -0.856872652000       1.135945958000
 H       -0.342089655800      -3.290836515200       0.843147167100
 H       -0.342089655800      -3.290836515200      -0.843147167100
 H       -0.021049595400      -1.274046235800      -2.004978985800
 H        0.484178351000       0.194544493200      -1.019322588700
 H       -0.021049595400      -1.274046235800       2.004978985800
 H        0.484178351000       0.194544493200       1.019322588700
 C       -1.152366429100       2.104530391500       0.000000000000
 H       -1.675336460600       1.144538252300       0.000000000000
 H       -1.472256465800       2.658597529200      -0.880544849600
 S        0.661026482500       1.883031843600       0.000000000000
 H       -1.472256465800       2.658597529200       0.880544849600