15

 C        0.024471742900      -1.489383581400       0.000000000000
 N        0.260302785000      -0.856872652000      -1.135945958000
 N       -0.474248393600      -2.759643634900       0.000000000000
 N        0.260302785000      -0.856872652000       1.135945958000
 H       -0.342089655800      -3.290836515200       0.843147167100
 H       -0.342089655800      -3.290836515200      -0.843147167100
 H       -0.021049595400      -1.274046235800      -2.004978985800
 H        0.484178351000       0.194544493200      -1.019322588700
 H       -0.021049595400      -1.274046235800       2.004978985800
 H        0.484178351000       0.194544493200       1.019322588700
 C       -1.148613093168       2.448953283218       0.000000000000
 H       -1.671583124668       1.488961144018       0.000000000000
 H       -1.468503129868       3.003020420918      -0.880544849600
 S        0.664779818432       2.227454735318       0.000000000000
 H       -1.468503129868       3.003020420918       0.880544849600