15

 C        0.010370994400       1.110889967000       0.000000000000
 N        0.197195295400       0.446277876400       1.128590383500
 N       -0.408134561800       2.424517989400       0.000000000000
 N        0.197195295400       0.446277876400      -1.128590383500
 H       -0.187145369700       2.937703853100      -0.836695341700
 H       -0.187145369700       2.937703853100       0.836695341700
 H        0.002835480000       0.913989047000       1.996010153900
 H        0.438967409300      -0.684775759600       0.850010593000
 H        0.002835480000       0.913989047000      -1.996010153900
 H        0.438967409300      -0.684775759600      -0.850010593000
 C       -0.523862119923      -2.323027219472       0.000000000000
 H       -1.448804998223      -1.730827995972       0.000000000000
 H       -0.544104630423      -2.968418318672       0.880962273200
 H       -0.544104630423      -2.968418318672      -0.880962273200
 O        0.625367617277      -1.508274235372       0.000000000000