17

 N       -2.562614830000       0.964587890000       0.000000000000
 N       -0.901460800000      -0.455702670000       0.000000000000
 C       -1.223181340000       0.833717200000       0.000000000000
 C       -2.071682980000      -1.175489200000       0.000000000000
 C       -3.122200400000      -0.303048400000       0.000000000000
 H       -0.458572760000       1.608402630000       0.000000000000
 H       -2.100015530000      -2.252594890000       0.000000000000
 H       -4.187260780000      -0.465710020000       0.000000000000
 H       -3.068632440000       1.839862030000       0.000000000000
 H        0.024433810000      -0.833475110000       0.000000000000
 C        3.472589625360      -0.101217530701       0.000000000000
 H        3.716605325360      -0.688573090701       0.925237700000
 H        3.959497335360       0.872165139299       0.000000000000
 C        1.965252895360       0.073480449299       0.000000000000
 H        3.716605325360      -0.688573090701      -0.925237700000
 O        1.437874055360       1.182961389299       0.000000000000
 O        1.296933075360      -1.058880400701       0.000000000000