17

 N       -2.562614830000       0.964587890000       0.000000000000
 N       -0.901460800000      -0.455702670000       0.000000000000
 C       -1.223181340000       0.833717200000       0.000000000000
 C       -2.071682980000      -1.175489200000       0.000000000000
 C       -3.122200400000      -0.303048400000       0.000000000000
 H       -0.458572760000       1.608402630000       0.000000000000
 H       -2.100015530000      -2.252594890000       0.000000000000
 H       -4.187260780000      -0.465710020000       0.000000000000
 H       -3.068632440000       1.839862030000       0.000000000000
 H        0.024433810000      -0.833475110000       0.000000000000
 C        7.896403522803      -0.068280275972       0.000000000000
 H        8.140419222803      -0.655635835972       0.925237700000
 H        8.383311232803       0.905102394028       0.000000000000
 C        6.389066792803       0.106417704028       0.000000000000
 H        8.140419222803      -0.655635835972      -0.925237700000
 O        5.861687952803       1.215898644028       0.000000000000
 O        5.720746972803      -1.025943145972       0.000000000000