15

 N       -0.208558970000       0.043929690000       0.318609930000
 N       -2.010102970000      -0.985925310000      -0.463509070000
 C       -0.668732970000      -1.072534310000      -0.218506070000
 C       -2.426005970000       0.271534690000      -0.056321070000
 H       -2.594702970000      -1.707650310000      -0.883455070000
 C       -1.295944970000       0.887865690000       0.424522930000
 H       -0.082264970000      -1.956937310000      -0.450059070000
 H       -3.453559970000       0.594046690000      -0.152161070000
 H       -1.193909970000       1.880025690000       0.830125930000
 H        0.733628590000       0.237568340000       0.592081430000
 C        3.696562529680       0.852321949133      -0.857661673558
 H        3.622275529680       1.856734949133      -0.426634673558
 H        2.911451529680       0.723618949133      -1.606099673558
 S        3.579946529680      -0.444978050867       0.441574326442
 H        4.673199529680       0.743583949133      -1.340022673558