15

 N       -0.208558970000       0.043929690000       0.318609930000
 N       -2.010102970000      -0.985925310000      -0.463509070000
 C       -0.668732970000      -1.072534310000      -0.218506070000
 C       -2.426005970000       0.271534690000      -0.056321070000
 H       -2.594702970000      -1.707650310000      -0.883455070000
 C       -1.295944970000       0.887865690000       0.424522930000
 H       -0.082264970000      -1.956937310000      -0.450059070000
 H       -3.453559970000       0.594046690000      -0.152161070000
 H       -1.193909970000       1.880025690000       0.830125930000
 H        0.733628590000       0.237568340000       0.592081430000
 C        6.653961118719       0.957519796532      -0.849254694233
 H        6.579674118719       1.961932796532      -0.418227694233
 H        5.868850118719       0.828816796532      -1.597692694233
 S        6.537345118719      -0.339780203468       0.449981305767
 H        7.630598118719       0.848781796532      -1.331615694233