15

 N       -0.208558970000       0.043929690000       0.318609930000
 N       -2.010102970000      -0.985925310000      -0.463509070000
 C       -0.668732970000      -1.072534310000      -0.218506070000
 C       -2.426005970000       0.271534690000      -0.056321070000
 H       -2.594702970000      -1.707650310000      -0.883455070000
 C       -1.295944970000       0.887865690000       0.424522930000
 H       -0.082264970000      -1.956937310000      -0.450059070000
 H       -3.453559970000       0.594046690000      -0.152161070000
 H       -1.193909970000       1.880025690000       0.830125930000
 H        0.733628590000       0.237568340000       0.592081430000
 C        3.105082811872       0.831282379653      -0.859343069423
 H        3.030795811872       1.835695379653      -0.428316069423
 H        2.319971811872       0.702579379653      -1.607781069423
 S        2.988466811872      -0.466017620347       0.439892930577
 H        4.081719811872       0.722544379653      -1.341704069423