 10
 
 N                 -0.20855897    0.04392969    0.31860993
 N                 -2.01010297   -0.98592531   -0.46350907
 C                 -0.66873297   -1.07253431   -0.21850607
 C                 -2.42600597    0.27153469   -0.05632107
 H                 -2.59470297   -1.70765031   -0.88345507
 C                 -1.29594497    0.88786569    0.42452293
 H                 -0.08226497   -1.95693731   -0.45005907
 H                 -3.45355997    0.59404669   -0.15216107
 H                 -1.19390997    1.88002569    0.83012593
 H                  0.73362859    0.23756834    0.59208143
