8

 N         -0.2436676394       -1.7543757545        0.0000000000
 C          1.0518353533       -2.4450740053        0.0000000000
 H          1.1563429215       -3.0618807287        0.8872813350
 H          1.8284972759       -1.6866512632        0.0000000000
 H          1.1563429215       -3.0618807287       -0.8872813350
 H         -1.0378842104       -2.3810046911        0.0000000000
 H         -0.2999191933       -0.9847628355       -0.7710022091
 H         -0.2999191933       -0.9847628355        0.7710022091
