15

 N       -0.243667639400      -1.754375754500       0.000000000000
 C        1.051835353300      -2.445074005300       0.000000000000
 H        1.156342921500      -3.061880728700       0.887281335000
 H        1.828497275900      -1.686651263200       0.000000000000
 H        1.156342921500      -3.061880728700      -0.887281335000
 H       -1.037884210400      -2.381004691100       0.000000000000
 H       -0.299919193300      -0.984762835500      -0.771002209100
 H       -0.299919193300      -0.984762835500       0.771002209100
 C       -0.216469469500       2.593285566900       0.000000000000
 H        0.266630858100       2.972256864000       0.895115256100
 C       -0.218533051600       1.081512389800       0.000000000000
 H        0.266630858100       2.972256864000      -0.895115256100
 O       -0.232498032700       0.497647057900      -1.128777198300
 O       -0.232498032700       0.497647057900       1.128777198300
 H       -1.250451365500       2.936487041700       0.000000000000