15

 N       -0.243667639400      -1.754375754500       0.000000000000
 C        1.051835353300      -2.445074005300       0.000000000000
 H        1.156342921500      -3.061880728700       0.887281335000
 H        1.828497275900      -1.686651263200       0.000000000000
 H        1.156342921500      -3.061880728700      -0.887281335000
 H       -1.037884210400      -2.381004691100       0.000000000000
 H       -0.299919193300      -0.984762835500      -0.771002209100
 H       -0.299919193300      -0.984762835500       0.771002209100
 C       -0.275767195681       2.916616523013       0.000000000000
 H        0.207333131919       3.295587820113       0.895115256100
 C       -0.277830777781       1.404843345913       0.000000000000
 H        0.207333131919       3.295587820113      -0.895115256100
 O       -0.291795758881       0.820978014013      -1.128777198300
 O       -0.291795758881       0.820978014013       1.128777198300
 H       -1.309749091681       3.259817997813       0.000000000000