13

 N       -1.871728000000       0.590372000000      -0.409427000000
 C       -2.211908000000      -0.607269000000       0.366391000000
 H       -3.290849000000      -0.800379000000       0.474364000000
 H       -1.777031000000      -0.515398000000       1.366626000000
 H       -1.756203000000      -1.480607000000      -0.110636000000
 H       -2.292946460000       1.392500770000       0.013851220000
 H       -2.211824870000       0.489597950000      -1.344402240000
 H       -0.878517500000       0.705429620000      -0.426592450000
 C        1.038139602939      -1.107097606642      -0.352631005581
 H        0.384858602939      -1.723467606642       0.270706994419
 H        2.073660602939      -1.403910606642      -0.170630005581
 S        0.899025602939       0.670561393358       0.082211994419
 H        0.807682602939      -1.277204606642      -1.407583005581