13

 N       -1.871728000000       0.590372000000      -0.409427000000
 C       -2.211908000000      -0.607269000000       0.366391000000
 H       -3.290849000000      -0.800379000000       0.474364000000
 H       -1.777031000000      -0.515398000000       1.366626000000
 H       -1.756203000000      -1.480607000000      -0.110636000000
 H       -2.292946460000       1.392500770000       0.013851220000
 H       -2.211824870000       0.489597950000      -1.344402240000
 H       -0.878517500000       0.705429620000      -0.426592450000
 C        2.761400560608      -1.074629493585      -0.363912654187
 H        2.108119560608      -1.690999493585       0.259425345813
 H        3.796921560608      -1.371442493585      -0.181911654187
 S        2.622286560608       0.703029506415       0.070930345813
 H        2.530943560608      -1.244736493585      -1.418864654187