13

 N       -1.871728000000       0.590372000000      -0.409427000000
 C       -2.211908000000      -0.607269000000       0.366391000000
 H       -3.290849000000      -0.800379000000       0.474364000000
 H       -1.777031000000      -0.515398000000       1.366626000000
 H       -1.756203000000      -1.480607000000      -0.110636000000
 H       -2.292946460000       1.392500770000       0.013851220000
 H       -2.211824870000       0.489597950000      -1.344402240000
 H       -0.878517500000       0.705429620000      -0.426592450000
 C        1.194799690000      -1.104145960000      -0.353656610000
 H        0.541518690000      -1.720515960000       0.269681390000
 H        2.230320690000      -1.400958960000      -0.171655610000
 S        1.055685690000       0.673513040000       0.081186390000
 H        0.964342690000      -1.274252960000      -1.408608610000