13

 N       -1.871728000000       0.590372000000      -0.409427000000
 C       -2.211908000000      -0.607269000000       0.366391000000
 H       -3.290849000000      -0.800379000000       0.474364000000
 H       -1.777031000000      -0.515398000000       1.366626000000
 H       -1.756203000000      -1.480607000000      -0.110636000000
 H       -2.292946460000       1.392500770000       0.013851220000
 H       -2.211824870000       0.489597950000      -1.344402240000
 H       -0.878517500000       0.705429620000      -0.426592450000
 C        2.000994614406      -0.607962731667      -0.442983025656
 H        1.347713614406      -1.224332731667       0.180354974344
 H        3.036515614406      -0.904775731667      -0.260982025656
 H        1.770537614406      -0.778069731667      -1.497935025656
 O        1.892604974406       0.777087108333      -0.104178325656