13

 N       -1.871728000000       0.590372000000      -0.409427000000
 C       -2.211908000000      -0.607269000000       0.366391000000
 H       -3.290849000000      -0.800379000000       0.474364000000
 H       -1.777031000000      -0.515398000000       1.366626000000
 H       -1.756203000000      -1.480607000000      -0.110636000000
 H       -2.292946460000       1.392500770000       0.013851220000
 H       -2.211824870000       0.489597950000      -1.344402240000
 H       -0.878517500000       0.705429620000      -0.426592450000
 C        3.327629998812      -0.592277933333      -0.520973831312
 H        2.674348998812      -1.208647933333       0.102364168688
 H        4.363150998812      -0.889090933333      -0.338972831312
 H        3.097172998812      -0.762384933333      -1.575925831312
 O        3.219240358812       0.792771906667      -0.182169131312