13

 N       -1.871728000000       0.590372000000      -0.409427000000
 C       -2.211908000000      -0.607269000000       0.366391000000
 H       -3.290849000000      -0.800379000000       0.474364000000
 H       -1.777031000000      -0.515398000000       1.366626000000
 H       -1.756203000000      -1.480607000000      -0.110636000000
 H       -2.292946460000       1.392500770000       0.013851220000
 H       -2.211824870000       0.489597950000      -1.344402240000
 H       -0.878517500000       0.705429620000      -0.426592450000
 C        0.541695691559      -0.625216009833      -0.357193139434
 H       -0.111585308441      -1.241586009833       0.266144860566
 H        1.577216691559      -0.922029009833      -0.175192139434
 H        0.311238691559      -0.795323009833      -1.412145139434
 O        0.433306051559       0.759833830167      -0.018388439434